
 OpenBabel08051917033D

  5  4  0  0  0  0  0  0  0  0999 V2000
    1.0371   -0.0472   -0.0800 C   0  0  0  0  0  0  0  0  0  0  0  0
    2.1293   -0.0472   -0.0800 H   0  0  0  0  0  0  0  0  0  0  0  0
    0.6730    0.2228   -1.0737 H   0  0  0  0  0  0  0  0  0  0  0  0
    0.6730    0.6784    0.6507 H   0  0  0  0  0  0  0  0  0  0  0  0
    0.6730   -1.0428    0.1831 H   0  0  0  0  0  0  0  0  0  0  0  0
  1  2  1  0  0  0  0
  1  3  1  0  0  0  0
  1  4  1  0  0  0  0
  1  5  1  0  0  0  0
M  END
$$$$
